<?xml version="1.0" encoding="UTF-8"?>
<!-- generated on 2022-03-12 18:03:59.986729 by randomTrips.py v1_12_0+1216-22d05a4cfcc
<configuration>
    <end value="20"/>
    <intermediate value="1178"/>
    <length value="True"/>
    <net-file value="map.net.xml"/>
    <route-file value="20nodes/20nodes.rou.xml"/>
    <trip-attributes value="departLane=&quot;best&quot; departSpeed=&quot;max&quot; departPos=&quot;random_free&quot;"/>
    <output-trip-file value="20nodes/trips.trips.xml"/>
</configuration>

-->
<routes xmlns:xsi="http://www.w3.org/2001/XMLSchema-instance" xsi:noNamespaceSchemaLocation="http://sumo.dlr.de/xsd/routes_file.xsd">
    <trip id="0" depart="0.00" from="259232752#0" to="125171274" via="-125170455#0 -583078807#0 -359963350#2 364643505#1 287880908#1 586229393 -125286506 120164119#1 -125170455#0 -359963350#0 125285018#0 -125170455#0 -287880908#1 259232748#1 148619428 -359963350#2 149724284 57940902#2 -125164999#5 57940902#1 327351346#1 -756479432 -244246880#0 756479432 -701018442#1 -148619428 -148911253 583078799#1 149724284 57940902#1 364643505#0 125286506 965096279#2 -965096279#2 148911253 57941572#1 195843389#1 583078807#1 148913693#1 327351346#1 -125170455#2 -359963350#2 -586229392 -125286506 -447818568 -148911253 -583078807#1 259232746 -965096279#1 -965096279#1 -359963350#0 -583078799#0 586229397 259232748#1 195843389#1 -259232752#0 364643505#0 -244246880#1 -965096279#2 965096279#2 259232747#0 148911253 287880908#1 583078798 57938892#4 -359963350#2 -125170455#0 -586229395#1 -583078799#1 -359963350#0 587361209#0 586229387 -586229395#0 259232752#0 -E0 586229395#0 125170455#0 -583078799#0 -57938892#2 148911253 -57940503#1 149724284 586229394 1007279099#0 -359963350#0 E0 125285018#1 -125286506 -125170455#2 -148911253 244246880#1 57940503#1 120164119#1 -125171274 -965096279#2 E0 125286506 965096279#1 583078807#1 -125164999#5 359963350#2 287880908#1 125286506 -583078799#0 259232747#0 -148911253 125164999#4 125170455#0 701018442#1 586229387 -57940503#1 125285018#0 -259232752#1 586229395#0 586229387 -586229392 259232747#0 195843389#1 -195843389#1 57938892#1 125286506 57938892#4 125286506 -1007279099#0 -586229396#1 -125164999#7 586229397 586229387 57941572#2 -586229393 -125171274 586229387 587361209#1 -125286506 125171274 -125171274 447818568 57938892#2 -149724284 125170455#1 148911253 -583078799#0 586229387 120164119#1 -359963350#0 125286506 364643505#0 -287880908#4 -586229395#0 E0 259232748#1 125164999#5 125285018#1 -149724284 -359963350#2 -701018442#1 149724284 -359963350#2 -359963350#2 -125286506 244246880#1 -359963350#2 586229394 583078807#1 -125286506 -447818568 259232752#1 -359963350#0 -149724284 586229397 148913693#1 125170455#1 57940503#1 57940902#1 -287880908#0 -148911253 120164119#3 120164119#1 125170455#1 364643505#0 259232752#1 965096279#2 -148911253 1007279099#2 -701018442#1 583078807#1 -57940503#1 -287880908#0 125164999#7 120164119#1 -583078807#1 -57940503#1 586229396#0 125164999#5 583078807#1 148911253 -125171274 E0 583078798 965096279#1 586229396#2 583078799#1 -259232751 125171274 -359963350#0 1007279099#2 -125171274 -965096279#2 965096279#2 -583078799#0 57940503#1 125170455#0 120164119#1 756479432 E0 148911253 359963350#2 -244246880#0 -586229392 965096279#1 148913693#1 125286506 447818566 -125171274 149724284 125285018#0 583078807#0 -244246880#1 756479432 -125286506 -259232752#1 149724284 287880908#0 -447818568 -149724284 586229393 -57938892#2 149724284 195843389#1 120164119#0 149724284 125286506 586229397 -287880908#4 359963350#2 -447818568 -E0 259232752#1 -586229393 -586229395#1 447818568 -125286506 125170455#0 E0 E0 -125286506 -359963350#0 -583078799#0 586229397 586229387 586229387 -965096279#1 -244246880#1 583078798 327351346#1 195843389#1 965096279#2 259232752#0 -125164999#5 57940902#2 -586229392 259232752#0 586229397 -149724284 -149724284 -148911253 148911253 -583078807#0 195843389#0 359963350#2 -287880908#4 259232746 -57940503#1 125171274 586229394 583078799#0 -148619428 120164119#1 -583078807#0 -125164999#3 57938892#4 259232747#0 -57940503#1 364643512#1 148911253 120164119#1 -125164999#5 -125286506 586229387 586229394 148619428 583078798 149724284 -195843389#1 -149724284 -586229393 586229394 57940902#0 583078807#1 586229394 -359963350#0 -57940503#1 -148911253 57940503#1 586229387 1007279100 195843389#1 -244246880#0 586229397 583078807#1 965096279#2 57940902#2 586229387 -125170455#0 364643505#1 -587361209#1 586229397 57940902#1 583078807#1 57940902#2 -583078799#0 57940503#1 -148911253 586229387 583078807#1 -359963350#2 57940902#2 125170455#0 -586229393 57940902#0 -359963350#2 -125170455#0 -287880908#1 -587361209#0 583078807#1 965096279#1 -583078807#1 259232747#1 1007279099#0 965096279#2 125286506 586229397 -149724284 965096279#1 -259232752#1 818980233 -583078799#0 -148911253 125164999#3 364643504#1 -586229395#0 195843389#0 125285018#1 -965096279#2 148913693#1 -57940503#1 327351346#1 -125164999#2 586229396#1 125286506 359963350#2 364643512#2 259232752#1 -965096279#1 -125286506 259232752#1 -587361209#0 -586229395#0 583078799#1 359963350#2 -586229393 -586229393 1007279100 1007279099#2 -586229392 -149724284 120164119#1 586229397 287880908#1 586229394 195843389#1 -586229393 148911253 -1007279099#0 -583078807#1 120164119#1 148913693#1 259232752#0 125170455#0 125164999#5 -359963350#0 125170455#1 586229394 57940902#0 -259232752#0 -125286506 125285018#1 252231665 -701018442#0 57941572#0 447818568 259232752#1 -359963350#2 -287880908#2 -125170455#0 -57938892#2 125170455#1 583078799#1 -125286506 120164119#0 244246880#1 -287880908#1 327351346#1 125171274 -57938892#2 259232752#0 -125164999#4 447818568 57938892#4 -148911253 120164119#1 -259232752#0 756479432 125285018#1 -125171274 -57940503#1 583078799#1 125170455#0 57940902#1 259232752#1 965096279#2 149724284 701018442#0 586229393 195843389#1 359963350#2 125285018#0 57941572#2 148911253 586229393 364643512#3 125170455#1 -57940503#1 -57940503#0 259232747#0 57938892#2 125286506 244246880#1 -583078807#0 -125286506 -583078807#1 -583078807#0 -586229395#1 125286506 -195843389#0 -447818568 327351346#1 327351346#1 -125171274 1007279100 125286506 120164119#0 -359963350#0 120164119#0 586229394 149724284 327351346#1 583078807#0 57938892#2 -965096279#2 -125164999#4 -776653581 447818568 583078807#0 701018442#1 120164119#0 447818566 148619428 149724284 -359963350#2 -359963350#0 125164999#4 -125170455#0 -701018442#1 287880908#1 1007279099#2 -252231665 125170455#1 -149724284 244246880#0 -125170455#0 -E0 148911253 -125170455#0 259232747#1 -149724284 125170455#0 -125171274 -965096279#2 -359963350#0 -587361209#0 560925652 -965096279#2 447818568 57941572#2 -57940503#1 -125286506 -125164999#7 125286506 E0 -776653581 259232748#1 57940503#1 259232748#1 447818568 701018442#0 -287880908#2 -125164999#7 -195843389#1 -149724284 259232752#1 148911253 -359963350#0 327351346#1 57938892#4 -259232752#0 195843389#0 447818566 -149724284 57941572#0 818980233 -148911253 -125170455#0 -586229395#0 287880908#1 756479432 -E0 359963350#2 -125286506 287880908#4 244246880#1 -148911253 57938892#4 583078799#1 149724284 -149724284 965096279#2 57940503#1 -776653581 120164119#1 -965096279#1 125285018#0 -756479432 583078799#1 57941572#0 -148911253 756479432 259232746 57941572#1 327351346#1 125164999#4 364643505#0 965096279#1 -583078799#1 57940902#2 125286506 125171274 125164999#4 364643505#0 -583078799#1 583078807#0 57941572#2 -125286506 586229387 -57938892#2 125170455#0 195843389#1 -965096279#2 -125170455#0 583078807#0 -259232752#1 -359963350#0 57940902#1 -756479432 586229387 327351346#1 -583078807#0 -125164999#5 587361209#1 -125286506 359963350#2 125171274 447818568 287880908#4 259232747#1 125171274 57940503#1 -148619428 -359963350#2 287880908#4 -586229393 148913693#1 125170455#1 125286506 120164119#1 447818566 -587361209#1 327351346#1 -583078807#0 -57940503#1 -149724284 -287880908#1 -149724284 125286506 57938892#1 -259232752#1 -359963350#0 125171274 364643504#0 965096279#2 125286506 -583078807#1 -148911253 -287880908#1 -359963350#2 -259232752#1 -125164999#5 125286506 -583078807#0 965096279#2 148911253 327351346#1 -149724284 586229387 125171274 586229387 148913693#1 125170455#1 125164999#5 -259232752#1 -125171274 586229397 125170455#2 57941572#0 1007279099#2 -125286506 244246880#1 -125171274 -195843389#1 148911253 -586229393 997389404 -149724284 57938892#2 195843389#0 57940503#1 -359963350#2 125286506 125164999#7 125164999#5 583078807#1 997389404 -586229393 244246880#0 195843389#1 364643512#1 587361209#1 -359963350#0 -359963350#0 259232752#0 -244246880#0 -259232752#0 -125286506 -125164999#3 125164999#7 149724284 -586229392 -447818568 327351346#1 327351346#1 125170455#0 287880908#4 586229396#1 57940503#1 244246880#1 259232752#0 586229397 120164119#1 148619428 259232748#1 586229394 57941572#1 -125286506 -252231665 -586229393 447818566 148913693#1 -586229392 -149724284 287880908#4 327351346#1 587361209#0 125285018#0 125171274 -125286506 -125170455#1 125164999#2 -586229396#0 -57940503#1 -125286506 756479432 583078798 148913693#1 701018442#0 E0 259232752#1 -583078799#1 -125170455#1 447818568 125170455#1 259232748#1 586229395#1 -259232752#1 149724284 259232746 125171274 -125286506 -776653581 -701018442#0 259232752#1 583078807#1 -587361209#0 327351346#1 -583078807#1 587361209#0 57940902#2 148911253 125170455#0 -586229395#0 -586229396#1 965096279#1 1007279099#2 125285018#1 965096279#2 259232752#0 125286506 120164119#0 -259232752#1 -818980233 447818568 244246880#1 447818568 -287880908#4 148911253 586229396#2 125164999#5 327351346#1 -149724284 965096279#2 195843389#1 -447818568 -244246880#1 148911253 148911253 -148619428 997389404 586229395#0 125170455#0 -149724284 583078796 125171274 359963350#2 125285018#0 -583078807#0 583078798 965096279#2 -57938892#2 148911253 -965096279#2 586229396#0 125285018#0 586229387 583078807#1 -583078807#0 57940503#1 120164119#0 586229397 125285018#0 57941572#0 -583078807#1 -586229392 149724284 E0 125171274 -195843389#1 125286506 -756479432 148911253 125286506 125170455#0 -586229396#0 -259232752#1 327351346#1 148913693#1 -447818568 57938892#4 -125170455#1 447818566 327351346#1 57940902#2 -965096279#2 259232752#0 57941572#0 965096279#2 125171274 -125170455#1 125285018#0 149724284 586229387 586229387 125164999#5 125286506 125170455#0 364643504#0 1007279100 259232752#0 -244246880#0 125170455#1 965096279#1 -701018442#1 327351346#1 259232748#1 583078807#0 583078807#0 583078807#1 -965096279#2 -586229395#1 359963350#2 447818568 586229387 -125170455#0 -125171274 244246880#1 586229396#0 E0 447818566 125164999#3 -148911253 252231665 586229387 125164999#5 327351346#1 586229394 -125170455#2 57940902#0 -586229392 -965096279#2 -195843389#1 125286506 148913693#0 57940503#1 -259232752#0 -125286506 586229387 195843389#1 -447818568 586229395#0 -195843389#1 125170455#0 -57940503#1 -57940503#1 -125164999#5 57940902#1 586229394 287880908#1 -244246880#1 125164999#5 -756479432 149724284 259232747#0 120164119#1 -57940503#1 583078799#0 -287880908#2 -965096279#2 125171274 -447818568 148913693#1 148913693#1 997389404 -586229392 965096279#2 259232752#0 -583078807#0 148913693#0 287880908#2 447818566 -125171274 195843389#0 125171274 586229394 -583078807#1 57940902#1 195843389#0 -776653581 259232747#0 195843389#1 287880908#1 359963350#2 259232752#0 583078798 244246880#1 586229394 259232748#0 -586229393 125164999#5 148913693#1 364643505#0 -125286506 -586229392 447818566 -259232752#0 -149724284 125286506 965096279#1 125286506 586229395#0 57941572#2 -57940503#1 57941572#0 125171274 57940902#1 447818566 -701018442#1 -149724284 818980233 -195843389#1 965096279#1 583078807#1 364643504#0 965096279#2 965096279#1 57940902#1 -965096279#1 57940503#1 -125164999#5 125286506 125170455#0 259232752#1 259232752#1 149724284 57941572#0 586229397 -148911253 -447818568 -125170455#0 586229387 148911253 586229395#0 -359963350#2 -125171274 57941572#0 586229394 -586229393 1007279100 -195843389#1 587361209#0 -586229393 125171274 -148911253 586229393 -149724284 125170455#0 259232752#1 364643512#3 587361209#0 120164119#0 364643512#3 -244246880#0 120164119#0 -148911253 125171274 1007279100 701018442#0 -125170455#0 -965096279#1 125164999#5 701018442#0 583078807#0 -148911253 287880908#2 148619428 965096279#2 -776653581 -E0 -287880908#0 -149724284 583078799#1 125170455#0 259232752#0 259232747#1 149724284 -125170455#0 57940503#1 -57938892#1 -149724284 148911253 -125171274 57938892#2 -359963350#0 -359963350#0 586229387 -587361209#0 -195843389#1 586229394 -125164999#3 583078807#1 -195843389#1 -149724284 -57940503#1 -259232752#0 259232752#0 -125170455#0 -125164999#5 57940503#1 -447818568 -586229396#1 -259232752#0 -125171274 364643512#2 125286506 447818566 125170455#2 57938892#4 125285018#1 -148911253 125285018#0 587361209#0 -125170455#1 57940503#1 583078807#1 125286506 125170455#0 818980233 -125171274 125171274 1007279099#2 287880908#4 125171274 586229394 -125286506 -125286506 195843389#1 -125171274 -583078807#0 252231665 148911253 -586229396#2 E0 125286506 125170455#0 195843389#0 -148911253 327351346#1 583078807#0 259232748#1 57938892#4 359963350#2 -359963350#0 125170455#0 -359963350#2 -701018442#1 125170455#0 120164119#0 -148619428 120164119#1 259232752#1 -965096279#2 -195843389#1 586229396#0 -125171274 57941572#2 -148619428 -148911253 364643505#1 57940902#2 148911253 149724284 148911253 -587361209#0 -149724284 -776653581 259232752#1 447818568 586229387 359963350#2 965096279#1 149724284 -776653581 148913693#1 -359963350#0 259232752#0 -359963350#2 -148911253 583078799#0 -965096279#1 57938892#1 148913693#1 57940902#1 583078799#0 965096279#2 57941572#0 195843389#1 259232747#1 -125170455#0 586229397 57941572#1 -583078799#1 -259232752#1 327351346#1 -586229393 -756479432 -125164999#4 586229387 148913693#0 1007279099#2 -195843389#1 252231665 -125170455#0 447818566 -359963350#0 120164119#0 -756479432 -965096279#1 364643504#0 57938892#4 148913693#1 -125286506 -125171274 -244246880#1 195843389#1 259232752#1 -583078807#0 259232752#0 125171274 125164999#5 -583078807#0 447818568 -148911253 120164119#3 -583078807#1 287880908#1 125171274 259232752#1 -125170455#2 -E0 149724284 -125164999#5 -586229393 -359963350#0 -195843389#0 -57940503#1 -587361209#0 -125164999#5 447818566 -259232752#0 -965096279#2 327351346#1"  departLane="best" departSpeed="max" departPos="random_free"/>
    <trip id="1" depart="1.00" from="583078798" to="-149724284" via="57940902#1 -125286506 583078807#1 -125170455#1 -125164999#7 586229396#0 583078807#1 148913693#1 148913693#1 327351346#1 120164119#0 -149724284 -125164999#7 -586229396#1 57940902#1 195843389#1 57941572#2 586229395#1 -125286506 583078798 -57938892#1 149724284 125286506 -E0 -586229393 -756479432 -701018442#0 -259232752#0 125285018#1 -149724284 125285018#1 586229394 -776653581 364643504#1 57941572#0 57940902#2 -447818568 -195843389#1 -287880908#1 149724284 447818568 259232752#0 -259232752#0 57938892#4 125171274 447818568 447818568 125164999#7 586229396#1 148911253 259232746 244246880#0 583078807#1 244246880#1 -195843389#1 -125171274 125164999#5 -586229393 -583078807#0 -125171274 125285018#0 -586229393 125170455#0 -125171274 57941572#2 -125286506 583078807#1 583078807#0 195843389#1 125285018#0 125170455#0 148911253 57940503#1 586229393 125164999#7 57940902#2 259232748#1 -586229396#0 125170455#1 -195843389#1 -125171274 -148911253 586229394 -756479432 359963350#2 125285018#0 -259232752#0 -57940503#0 125164999#5 125164999#5 125286506 -244246880#1 -965096279#2 -583078807#1 1007279100 -701018442#1 149724284 57940503#1 259232748#1 -125171274 -148619428 287880908#1 -583078807#1 364643504#0 259232752#0 586229394 586229387 -701018442#0 149724284 -195843389#1 -776653581 965096279#1 327351346#1 -997389404 149724284 586229397 -586229393 -965096279#2 57940503#1 57940902#2 259232752#1 57941572#1 364643505#1 287880908#2 125286506 259232747#1 120164119#1 -818980233 -818980233 -259232752#1 -359963350#0 587361209#1 125171274 -359963350#2 -195843389#0 -125286506 583078798 -148911253 57938892#4 583078798 586229387 -125170455#1 -701018442#1 57938892#4 -149724284 -965096279#2 -244246880#1 57941572#2 57938892#4 57940902#2 -252231665 125164999#5 1007279100 287880908#0 -447818568 125164999#5 -583078807#1 447818566 125164999#7 125286506 -586229393 57940902#2 125170455#1 583078798 -965096279#1 587361209#1 965096279#2 125170455#0 -583078807#1 -965096279#2 125286506 965096279#1 57940902#2 57940902#1 -195843389#0 -57940503#1 259232747#1 586229387 148911253 -148911253 583078799#0 583078807#0 -583078807#1 57938892#1 -583078807#0 586229394 -195843389#1 125164999#5 587361209#0 -359963350#2 125164999#7 -776653581 -125170455#0 -125171274 125285018#0 -447818568 997389404 -965096279#2 -125170455#0 586229397 583078798 259232748#1 57940503#1 -195843389#0 -583078807#1 57941572#1 327351346#1 -195843389#0 327351346#1 125164999#7 -125164999#4 -125286506 -57940503#1 583078798 148911253 364643504#1 125286506 -148911253 -583078807#1 -586229393 -125170455#2 120164119#0 57940503#1 125170455#0 -148911253 586229394 149724284 -125164999#5 125285018#1 -447818568 -195843389#1 120164119#1 195843389#1 -447818568 120164119#0 259232752#1 -125286506 965096279#2 -125171274 125286506 125285018#0 965096279#2 148911253 -997389404 125170455#1 259232746 965096279#2 -57940503#1 -125164999#5 57940503#1 -756479432 364643505#0 244246880#1 57938892#4 364643505#0 -587361209#1 -125170455#1 148619428 57940902#2 -259232752#0 57938892#4 125170455#0 327351346#1 244246880#1 57940902#2 -125171274 57938892#4 125170455#0 -586229392 -125170455#1 -287880908#2 -125170455#1 586229397 125285018#1 965096279#2 125286506 -57940503#1 447818568 -287880908#1 -776653581 57940503#1 583078807#1 -587361209#1 -149724284 -965096279#1 586229393 364643512#3 586229393 -965096279#2 965096279#2 125171274 125171274 586229396#1 125285018#1 57940902#1 364643504#1 -125286506 149724284 57941572#0 148619428 -586229396#0 -125286506 259232752#0 -586229393 149724284 120164119#1 287880908#4 -776653581 -125170455#1 586229387 -776653581 E0 -583078807#0 965096279#2 587361209#1 -125286506 259232747#0 -818980233 57940902#1 287880908#1 701018442#1 -195843389#1 195843389#1 57940503#1 -125170455#0 -125171274 57938892#4 -965096279#1 -965096279#2 148913693#1 195843389#0 287880908#1 587361209#1 -965096279#2 57938892#1 148913693#1 125286506 -E0 259232748#1 -57940503#1 -148911253 364643505#1 125171274 -965096279#2 148911253 -57940503#1 -57940503#1 125164999#5 E0 -583078807#1 586229395#1 125171274 -149724284 583078807#0 125170455#0 586229394 125164999#5 -125286506 287880908#1 583078799#0 -586229395#1 -776653581 -125171274 125286506 586229393 583078807#0 359963350#2 586229396#2 259232747#0 57940503#1 125285018#0 -149724284 -287880908#4 -195843389#0 57940503#1 -125170455#0 148911253 -965096279#1 57940902#1 148911253 195843389#1 -125286506 -586229393 E0 359963350#2 125286506 57938892#4 57941572#0 -125286506 965096279#2 259232747#1 125164999#7 287880908#1 -756479432 586229387 57940503#1 259232747#0 -259232752#1 965096279#1 125164999#3 586229394 -125171274 -149724284 -195843389#1 -244246880#1 -586229396#1 327351346#1 -756479432 586229397 586229393 583078799#0 -57940503#1 259232746 148911253 -149724284 -586229393 125286506 125285018#0 -259232752#0 586229397 -244246880#0 259232752#0 359963350#2 195843389#0 583078798 148911253 57941572#1 -125170455#0 -125170455#2 259232747#1 148913693#1 259232748#1 57938892#4 120164119#0 259232747#0 125171274 244246880#1 -586229392 756479432 125171274 57940902#1 287880908#2 -586229392 -125286506 -125171274 125164999#5 125171274 -287880908#4 195843389#0 -586229395#0 359963350#2 364643505#0 583078807#1 965096279#2 -149724284 -965096279#1 148911253 -586229395#1 125170455#0 -583078799#1 -57940503#0 -148911253 -586229392 -965096279#2 195843389#1 -57940503#1 583078807#1 -244246880#1 -587361209#0 148913693#1 -586229395#0 57938892#1 125171274 125285018#1 125171274 -586229393 -125170455#0 587361209#0 125285018#0 965096279#1 -359963350#0 -776653581 -125171274 125171274 586229387 259232752#0 125170455#1 125286506 583078799#0 120164119#3 586229387 364643504#1 57938892#2 -965096279#1 1007279099#2 148913693#1 -287880908#1 148911253 -125286506 125285018#0 57938892#2 -583078807#1 965096279#2 287880908#1 -149724284 965096279#2 -E0 57940503#1 -701018442#1 586229397 447818568 -287880908#1 125285018#0 125285018#0 -125170455#1 -195843389#0 -701018442#0 125170455#1 125170455#0 195843389#0 125285018#1 -587361209#0 195843389#1 -244246880#1 997389404 364643512#1 -586229392 -701018442#1 57941572#1 125286506 327351346#1 -586229393 57940902#2 -965096279#1 259232752#1 965096279#2 149724284 57940902#0 364643504#0 287880908#4 -125170455#0 125170455#1 965096279#1 57940503#1 57938892#4 148913693#1 364643504#0 149724284 -259232752#0 244246880#1 195843389#1 583078798 -195843389#1 287880908#1 -125170455#0 587361209#1 -148911253 -125164999#7 -586229395#0 -195843389#1 287880908#4 1007279100 57938892#4 586229395#1 586229387 364643505#1 -125171274 -195843389#0 -359963350#0 -586229396#1 259232752#0 125286506 -586229395#0 -259232752#0 586229395#0 -756479432 -776653581 57938892#4 359963350#2 259232747#1 327351346#1 195843389#1 -287880908#1 -57938892#2 148911253 -359963350#2 965096279#2 -586229392 -586229392 -359963350#0 327351346#1 -586229395#1 -776653581 586229397 57940902#0 -583078807#0 -149724284 287880908#1 -965096279#2 965096279#2 57941572#0 701018442#1 57940902#1 -586229392 -583078807#1 359963350#2 -776653581 125164999#5 -57940503#1 125171274 -287880908#4 125286506 586229397 327351346#1 -195843389#0 195843389#1 149724284 -57938892#1 259232752#1 125286506 259232747#0 -125171274 120164119#0 359963350#2 -148911253 57938892#4 -125164999#4 148911253 586229397 1007279100 586229397 586229387 125170455#2 -287880908#2 818980233 -586229396#0 259232747#1 586229394 -125286506 148913693#1 125286506 364643504#0 586229397 586229395#0 -259232752#0 586229387 -259232752#0 586229395#1 E0 -E0 125171274 586229397 756479432 586229396#1 586229387 -125164999#5 148913693#1 -148911253 965096279#2 -583078807#1 965096279#2 125286506 125171274 586229397 583078807#0 125170455#1 -287880908#1 -148911253 -244246880#1 125170455#0 -57940503#1 -259232752#1 364643505#1 57940503#1 148913693#1 447818568 -259232752#0 583078807#0 586229393 57941572#1 125285018#1 -125286506 259232752#1 -259232752#1 -195843389#1 -586229396#1 -57940503#1 -57940503#1 -447818568 447818568 701018442#1 -586229393 364643504#0 -125164999#5 259232752#0 327351346#1 -125171274 -149724284 -586229393 1007279100 125285018#0 586229393 327351346#1 -586229395#0 -149724284 586229395#1 -586229392 195843389#1 -359963350#0 -149724284 -244246880#0 447818566 195843389#0 120164119#0 148911253 125170455#1 125286506 259232752#1 -359963350#0 -57940503#0 447818568 586229387 -125286506 125164999#5 327351346#1 -125286506 148911253 -125171274 148911253 125285018#0 148913693#1 -195843389#1 -587361209#0 125285018#2 -149724284 -287880908#4 149724284 -125286506 125285018#1 57940902#2 125170455#0 125285018#1 125170455#0 -125171274 125170455#0 57940902#1 364643504#0 -E0 57940902#2 447818566 148913693#1 -125170455#1 -756479432 -125171274 997389404 586229397 -125171274 586229397 -125170455#0 1007279100 57938892#4 57938892#2 965096279#2 259232747#1 120164119#1 997389404 -965096279#2 586229387 586229394 -965096279#2 287880908#1 259232752#0 125286506 259232751 -776653581 -259232752#1 125286506 125286506 364643504#1 -359963350#2 -125164999#3 -125170455#0 -586229392 259232752#1 148619428 125286506 57941572#0 -57940503#0 -756479432 -583078807#0 586229397 364643504#0 -148911253 57940902#2 120164119#0 57938892#2 586229387 -125164999#5 -287880908#4 -148911253 -125170455#0 149724284 327351346#1 -125171274 364643512#1 1007279099#2 -447818568 -359963350#0 583078807#1 -125171274 125285018#0 -586229392 57940902#2 364643505#0 -586229395#1 149724284 259232752#1 -586229396#0 -586229393 -195843389#1 259232752#0 -359963350#2 -586229393 -125171274 587361209#1 586229387 586229395#0 244246880#1 120164119#1 125171274 965096279#2 586229397 259232752#1 57940503#1 -586229395#1 120164119#0 -195843389#1 -965096279#2 447818568 125170455#1 583078799#1 -586229393 327351346#1 57940902#1 586229395#0 148911253 965096279#1 148911253 -149724284 -57938892#1 -287880908#4 259232748#1 586229396#0 583078799#0 -148619428 364643504#0 -287880908#0 -583078799#1 259232752#1 149724284 586229387 -259232752#1 560925652 364643504#0 148911253 125171274 586229387 -701018442#0 756479432 -125164999#5 586229397 756479432 -149724284 E0 125171274 -57938892#1 195843389#0 -287880908#4 586229395#0 148911253 57938892#4 -965096279#2 125286506 -776653581 -57940503#1 125285018#1 125171274 -148911253 965096279#2 125170455#1 583078798 586229395#0 -965096279#2 120164119#0 148911253 -359963350#2 -195843389#1 -57940503#1 586229397 148913693#1 120164119#0 -195843389#1 -587361209#0 -965096279#2 583078798 125171274 259232752#0 287880908#1 -57940503#1 57941572#0 965096279#1 259232747#1 125171274 -259232752#0 57940902#0 -259232752#0 359963350#2 125171274 586229395#1 125286506 259232747#1 -125171274 -125170455#0 583078799#0 587361209#0 259232752#1 57938892#2 120164119#0 583078798 -447818568 327351346#1 -125164999#5 125285018#0 -965096279#2 195843389#1 259232752#1 195843389#1 125171274 125171274 -125164999#5 148911253 -125164999#5 125286506 -583078807#0 965096279#2 -125164999#5 57940902#2 259232752#1 57940902#1 586229394 -148911253 -148911253 -195843389#1 -287880908#1 125286506 57940902#2 -583078799#0 -E0 -965096279#2 1007279100 148911253 997389404 -359963350#2 287880908#1 583078799#1 259232752#0 583078807#1 447818568 -148619428 -965096279#2 148911253 -125171274 -125164999#5 -259232752#0 125171274 125164999#3 57940503#1 148913693#0 583078807#1 -148619428 125286506 -125170455#1 -359963350#0 586229387 586229393 125170455#1 -125170455#2 -125286506 586229396#1 586229394 148911253 -125170455#0 586229397 -586229395#0 756479432 149724284 447818568 359963350#2 -E0 -125286506 -244246880#1 -447818568 583078798 -997389404 586229393 -587361209#1 447818568 -195843389#1 965096279#2 364643504#0 125285018#0 965096279#2 -125171274 125164999#5 583078798 -756479432 57938892#4 701018442#1 -E0 57938892#4 -125170455#0 -583078807#0 997389404 125171274 -776653581 586229397 125164999#2 287880908#1 259232752#0 -125286506 195843389#1 57940902#1 359963350#2 -125286506 -244246880#0 359963350#2 259232746 364643512#1 -586229395#1 -148911253 -125164999#4 -586229393 -776653581 -583078799#1 -149724284 -259232752#1 125164999#7 148911253 1007279100 -125170455#0 -776653581 -148619428 149724284 -586229396#1 -965096279#2 -586229392 -965096279#2 -125286506 586229394 586229394 965096279#2 148913693#1 -259232752#0 -965096279#2 -195843389#0 -586229393 125171274 -125171274 125164999#4 120164119#1 125171274 -125286506 -57940503#1 -57938892#2 244246880#1 149724284 -287880908#1 -148911253 -586229393 587361209#1 -587361209#1 195843389#1 57940902#1 -587361209#0 -701018442#0 57940902#2 583078807#1 965096279#2 -149724284 -586229396#0 587361209#1 -287880908#4 -586229395#0 818980233 965096279#1 -586229392 327351346#1 125171274 148913693#1 -57938892#1 -965096279#2 57940902#2 -997389404 -149724284 148911253 149724284 148619428 287880908#1 148911253 701018442#1 125170455#0 327351346#1 125164999#5 -586229392 327351346#1 57941572#0 57940902#0 1007279100 125171274 252231665 -447818568 259232752#0 359963350#2 57940503#1 -125286506 997389404 125171274 1007279099#2 125285018#0 586229395#1 287880908#4 148619428 57940503#1 -776653581 586229393 125286506 259232747#0 -125286506 57938892#4 259232752#0 -776653581 259232748#1 -125170455#1 965096279#2 287880908#1 1007279099#0 447818568 965096279#1 120164119#3 -125164999#5 -57940503#1 125285018#1 125285018#1 148913693#1 148913693#1 125164999#5 -997389404 57938892#4 149724284 125285018#0 -756479432 -125170455#0 -148911253 120164119#0 756479432 -149724284 586229397 -195843389#1 -586229395#0 125170455#0 -359963350#0 125171274 125170455#2 125164999#5 327351346#1 -586229395#1 -586229393 57940902#2"  departLane="best" departSpeed="max" departPos="random_free"/>